          36
   ETOT =    -3581.669631 eV; T =      0.0000 K; Time =         15.5 fs
  H      -2.246350     -1.279753     -0.000000       0.000000000       0.000000000       0.000000000
  H      -2.246094      1.279609     -0.000000       0.000000000       0.000000000       0.000000000
  C      -1.200194     -0.705353     -0.000000       0.000000000       0.000000000       0.000000000
  C      -1.200096      0.705256      0.000000       0.000000000       0.000000000       0.000000000
  C      -0.048904     -1.377632     -0.000000       0.000000000       0.000000000       0.000000000
  C      -0.048892      1.377649      0.000000       0.000000000       0.000000000       0.000000000
  C       1.201529     -0.719471     -0.000000       0.000000000       0.000000000       0.000000000
  C       1.201624      0.719503      0.000000       0.000000000       0.000000000       0.000000000
  H      -0.031681     -2.512917     -0.000000       0.000000000       0.000000000       0.000000000
  H      -0.031774      2.512877      0.000000       0.000000000       0.000000000       0.000000000
  C       2.388397     -1.377818     -0.000000       0.000000000       0.000000000       0.000000000
  C       2.388437      1.377890      0.000000       0.000000000       0.000000000       0.000000000
  C       3.601755     -0.721583     -0.000000       0.000000000       0.000000000       0.000000000
  C       3.601775      0.721551      0.000000       0.000000000       0.000000000       0.000000000
  H       2.397377     -2.514818     -0.000000       0.000000000       0.000000000       0.000000000
  H       2.397403      2.514799      0.000000       0.000000000       0.000000000       0.000000000
  C       4.800324     -1.378110     -0.000000       0.000000000       0.000000000       0.000000000
  C       4.800323      1.378159      0.000000       0.000000000       0.000000000       0.000000000
  C       5.997596     -0.721602     -0.000000       0.000000000       0.000000000       0.000000000
  C       5.997576      0.721570      0.000000       0.000000000       0.000000000       0.000000000
  H       4.803879     -2.514720     -0.000000       0.000000000       0.000000000       0.000000000
  H       4.803879      2.514711      0.000000       0.000000000       0.000000000       0.000000000
  C       7.213083     -1.377592     -0.000000       0.000000000       0.000000000       0.000000000
  C       7.213046      1.377660      0.000000       0.000000000       0.000000000       0.000000000
  C       8.399111     -0.719462     -0.000000       0.000000000       0.000000000       0.000000000
  C       8.399016      0.719495      0.000000       0.000000000       0.000000000       0.000000000
  H       7.210753     -2.514708     -0.000000       0.000000000       0.000000000       0.000000000
  H       7.210726      2.514714      0.000000       0.000000000       0.000000000       0.000000000
  C       9.651068     -1.376336     -0.000000       0.000000000       0.000000000       0.000000000
  C       9.651056      1.376353      0.000000       0.000000000       0.000000000       0.000000000
  C      10.806591     -0.707553     -0.000000       0.000000000       0.000000000       0.000000000
  C      10.806495      0.707457      0.000000       0.000000000       0.000000000       0.000000000
  H       9.638022     -2.511947     -0.000000       0.000000000       0.000000000       0.000000000
  H       9.638111      2.511913      0.000000       0.000000000       0.000000000       0.000000000
  H      11.804589     -1.267832     -0.000000       0.000000000       0.000000000       0.000000000
  H      11.804322      1.267675     -0.000000       0.000000000       0.000000000       0.000000000
